250
	Energy:     200.4161811
C          0.49578        9.32078        7.55483
C          0.32813        7.87480        7.99293
C         -0.23745        7.01042        6.86665
C         -0.34151        5.54418        7.29125
C         -0.78442        4.65783        6.12081
C         -0.54714        3.16509        6.37518
C          0.88891        2.69159        6.27741
C          1.27806        1.35830        6.28393
C          0.44503        0.18521        6.22033
C         -0.50811       -0.25370        7.11035
C         -1.22079       -1.43283        6.66106
C         -2.32227       -2.11704        7.44060
C         -2.92898       -1.26978        8.56372
C         -4.11659       -1.96843        9.22784
C         -4.70141       -1.10144       10.34477
C         -5.89024       -1.78194       11.02077
C         -6.46591       -0.91576       12.13014
C         -0.73342       -1.85662        5.42646
C         -1.17208       -2.94305        4.57721
C         -2.44886       -3.19530        4.12761
C         -2.51941       -4.21429        3.10411
C         -3.79814       -4.58533        2.38339
C         -5.10019       -4.01058        2.94748
C         -6.29192       -4.46491        2.09816
C         -7.59821       -3.81840        2.55753
C         -8.76657       -4.25744        1.67413
C        -10.06789       -3.59683        2.09825
C         -1.24237       -4.71249        2.81048
C         -0.76919       -5.55252        1.70936
C          0.48360       -6.12059        1.53840
C          0.76361       -6.54953        0.18230
C          2.13012       -6.99070       -0.29985
C          3.19339       -7.27483        0.76636
C          4.52847       -7.62008        0.09375
C          5.63819       -8.05045        1.05576
C          6.44931       -6.91137        1.67876
C          5.73175       -6.15581        2.78288
C         -0.35881       -6.35853       -0.62900
C         -0.51423       -6.35014       -2.07885
C         -1.67905       -6.22548       -2.82368
C         -1.45873       -5.65046       -4.13719
C         -2.55288       -5.14835       -5.05218
C         -3.98209       -5.27379       -4.51473
C         -4.99919       -4.70481       -5.50784
C         -6.42838       -4.82212       -4.97450
C         -7.43972       -4.24877       -5.96734
C         -8.86319       -4.36665       -5.44628
C         -0.09182       -5.47236       -4.34600
C          0.59580       -4.61551       -5.29211
C          0.23915       -4.20863       -6.56057
C          1.01540       -3.08200       -7.05620
C          0.77149       -2.39589       -8.37905
C         -0.20218       -3.11129       -9.32075
C         -0.29149       -2.39373      -10.66948
C         -1.25601       -3.06354      -11.65263
C         -0.92402       -4.51050      -12.02852
C          0.46433       -4.68476      -12.62447
C          1.93942       -2.66775       -6.09646
C          2.77407       -1.47712       -6.01324
C          3.27704       -0.65259       -7.00218
C          4.07317        0.45825       -6.50802
C          4.71613        1.52619       -7.35766
C          4.37184        1.47403       -8.84676
C          4.95030        2.68124       -9.58661
C          4.62422        2.62418      -11.07874
C          5.16092        3.85395      -11.80937
C          4.85867        3.79122      -13.29759
C          4.19739        0.38488       -5.12847
C          4.93324        1.20747       -4.19975
C          4.93533        2.57691       -4.05005
C          5.51313        3.01126       -2.79208
C          5.52226        4.44487       -2.31632
C          5.28224        5.50817       -3.39040
C          5.45192        6.91219       -2.80363
C          5.24649        7.99337       -3.86376
C          5.44519        9.38855       -3.27185
C          5.26115       10.47102       -4.32265
C          5.88811        1.90040       -2.02936
C          6.10523        1.75275       -0.59857
C          5.91035        0.59465        0.13095
C          5.79618        0.80328        1.55085
C          5.34510       -0.33714        2.43516
C          6.48145       -1.31988        2.72895
C          6.10839       -2.36869        3.77995
C          6.10337       -1.86543        5.22750
C          7.43486       -1.30363        5.73629
C          8.59027       -2.28836        5.64017
C          6.01583        2.14413        1.86746
C          5.74452        2.86975        3.09241
C          5.47562        4.21984        3.26591
C          4.69488        4.48442        4.46204
C          4.10182        5.83049        4.79448
C          4.98424        7.01980        4.39856
C          4.39317        8.34737        4.87966
C          5.21634        9.53128        4.36692
C          4.65999       10.86285        4.86921
C          5.44619       12.03850        4.30992
C          4.39303        3.26232        5.06709
S          5.65123        2.15506        4.64161
S          6.52156        3.01535        0.46605
S          5.95462        0.49763       -3.02849
S          3.21115       -0.84902       -4.47746
S          2.04927       -3.84026       -4.84290
S          0.79804       -6.35602       -3.16839
S         -1.70846       -5.89143        0.32768
S         -0.08038       -4.07679        3.92287
S          0.51658       -0.82836        4.85092
S          2.98043        1.19750        6.28428
C          3.20736        2.82558        5.78301
C          2.03604        3.52837        5.99954
H          0.91060        9.91834        8.37256
H          1.17768        9.39531        6.70131
H         -0.46554        9.75754        7.26679
H         -0.33499        7.83259        8.86450
H          1.30321        7.48400        8.30728
H          0.41558        7.09204        5.98872
H         -1.22615        7.38086        6.57047
H         -1.06044        5.44456        8.11368
H          0.62604        5.21700        7.68513
H         -0.28831        4.96146        5.19088
H         -1.85815        4.81922        5.96001
H         -0.94467        2.89476        7.36112
H         -1.13298        2.60942        5.63080
H         -0.70043        0.26026        8.04425
H         -3.12927       -2.39418        6.75417
H         -1.92195       -3.04831        7.86035
H         -2.16650       -1.06107        9.32434
H         -3.25847       -0.30284        8.16228
H         -4.89026       -2.17426        8.47829
H         -3.79504       -2.93342        9.63750
H         -3.92525       -0.89262       11.09128
H         -5.01833       -0.13588        9.93156
H         -6.67273       -1.98690       10.28103
H         -5.57887       -2.74532       11.44073
H         -7.31415       -1.41957       12.60373
H         -5.71513       -0.71619       12.90153
H         -6.81687        0.04364       11.73655
H         -3.29727       -2.60264        4.44587
H         -3.71577       -4.23301        1.34849
H         -3.88309       -5.67919        2.37044
H         -5.23952       -4.33083        3.98694
H         -5.05682       -2.91468        2.94453
H         -6.11164       -4.20552        1.04731
H         -6.38223       -5.55694        2.14803
H         -7.79863       -4.09076        3.60057
H         -7.50065       -2.72659        2.51989
H         -8.55984       -4.00122        0.62825
H         -8.88167       -5.34650        1.72361
H        -10.88800       -3.92781        1.45334
H        -10.32111       -3.85582        3.13106
H         -9.99645       -2.50702        2.02370
H          1.23741       -6.10296        2.31627
H          2.00618       -7.89549       -0.90805
H          2.52678       -6.19634       -0.94384
H          3.31870       -6.39503        1.40119
H          2.86836       -8.10166        1.40847
H          4.35187       -8.45296       -0.59963
H          4.87078       -6.77697       -0.51904
H          6.34655       -8.65676        0.47521
H          5.23954       -8.71012        1.83490
H          7.35951       -7.34751        2.10928
H          6.77974       -6.20878        0.90464
H          6.45224       -5.56119        3.35301
H          4.99144       -5.46242        2.37703
H          5.23593       -6.83900        3.47896
H         -2.66396       -6.33460       -2.38589
H         -2.36341       -4.08984       -5.27072
H         -2.48333       -5.69773       -5.99934
H         -4.21620       -6.32724       -4.31735
H         -4.07159       -4.73676       -3.56208
H         -4.76820       -3.65092       -5.70572
H         -4.91829       -5.23847       -6.46255
H         -6.66227       -5.87553       -4.77817
H         -6.50964       -4.28957       -4.01901
H         -7.21435       -3.19350       -6.16077
H         -7.36272       -4.77758       -6.92448
H         -9.56827       -3.95146       -6.17331
H         -9.13201       -5.41343       -5.27232
H         -8.98364       -3.81953       -4.50583
H         -0.59929       -4.63888       -7.09241
H          0.40983       -1.37813       -8.18707
H          1.73296       -2.31587       -8.89947
H          0.13627       -4.14291       -9.46991
H         -1.20030       -3.15643       -8.86824
H         -0.63178       -1.36382      -10.50329
H          0.70509       -2.31797      -11.11959
H         -1.28672       -2.46007      -12.56845
H         -2.26920       -3.03749      -11.23271
H         -1.03147       -5.16477      -11.15639
H         -1.66414       -4.85335      -12.76170
H          0.59860       -5.71511      -12.96920
H          0.61183       -4.01867      -13.48025
H          1.24590       -4.48013      -11.88665
H          3.10082       -0.82660       -8.05397
H          4.39994        2.50278       -6.97099
H          5.80474        1.46619       -7.23426
H          4.76329        0.54861       -9.28680
H          3.28270        1.46179       -8.98041
H          4.54076        3.60374       -9.15671
H          6.03754        2.71417       -9.44709
H          5.05886        1.71613      -11.51400
H          3.53789        2.56075      -11.21694
H          4.71186        4.76137      -11.38881
H          6.24470        3.93101      -11.66441
H          5.24541        4.68287      -13.80061
H          5.32548        2.91311      -13.75510
H          3.78002        3.74007      -13.47708
H          4.42587        3.23992       -4.73738
H          4.76513        4.55881       -1.53045
H          6.50461        4.64767       -1.87353
H          5.98749        5.36914       -4.21911
H          4.27087        5.40707       -3.80210
H          4.73533        7.05718       -1.98578
H          6.45608        7.01038       -2.37292
H          5.95399        7.83932       -4.68752
H          4.23683        7.91040       -4.28380
H          4.73128        9.55236       -2.45620
H          6.45099        9.47163       -2.84351
H          5.40969       11.45984       -3.87767
H          5.98301       10.35311       -5.13712
H          4.25327       10.43711       -4.74820
H          5.68555       -0.36389       -0.32421
H          4.87427        0.01339        3.35089
H          4.54311       -0.87922        1.91390
H          6.72858       -1.84797        1.79828
H          7.39235       -0.78597        3.01874
H          6.81015       -3.20587        3.69905
H          5.11877       -2.78202        3.54751
H          5.32944       -1.10015        5.34872
H          5.80672       -2.69885        5.87705
H          7.30847       -1.01458        6.78661
H          7.69565       -0.38740        5.19675
H          9.48602       -1.86367        6.10451
H          8.83746       -2.51661        4.59902
H          8.35264       -3.22498        6.15396
H          5.63945        4.96172        2.49395
H          3.13128        5.92229        4.29165
H          3.92319        5.87930        5.87586
H          5.99114        6.89517        4.81658
H          5.09293        7.05417        3.30781
H          3.35894        8.44191        4.52694
H          4.36459        8.36086        5.97586
H          6.25886        9.42425        4.69066
H          5.21786        9.52552        3.26985
H          3.60808       10.96329        4.57784
H          4.69829       10.89151        5.96431
H          5.04334       12.98133        4.69278
H          6.50115       11.97810        4.59586
H          5.38783       12.06392        3.21690
H          1.95163        4.58812        5.81089
