227
	Energy:     149.3924515
C          3.01518       -3.46754       -4.54099
C          1.82969       -4.30720       -4.99820
C          0.53630       -3.80707       -4.36465
C         -0.69716       -4.64081       -4.74930
C         -1.90071       -4.10577       -3.97223
C         -3.24805       -4.75433       -4.26356
C         -4.41855       -4.33272       -3.37101
C         -4.55515       -3.22674       -2.52607
C         -3.68112       -2.09240       -2.43139
C         -3.71988       -1.03820       -3.30969
C         -2.42946       -0.43334       -3.45325
C         -2.06160        0.38921       -4.65758
C         -3.14865        0.59190       -5.70399
C         -2.57081        1.32543       -6.91117
C         -3.65560        1.58468       -7.94697
C         -3.11876        2.42152       -9.10252
C         -4.22666        2.75348      -10.08573
C         -1.55294       -0.85033       -2.43946
C         -0.11698       -0.59880       -2.33044
C          0.68498        0.04325       -3.25057
C          2.09444       -0.03936       -3.02483
C          3.11024        0.47979       -4.02828
C          2.56588        0.73914       -5.43966
C          3.68073        1.10764       -6.42099
C          3.11513        1.31477       -7.82717
C          4.19108        1.78466       -8.80399
C          3.61063        2.02535      -10.18873
C          2.33499       -0.60716       -1.77557
C          3.58917       -0.75708       -1.06639
C          3.78563       -0.92174        0.29066
C          5.16912       -0.86218        0.69842
C          5.61885       -0.98155        2.13796
C          4.54120       -1.39142        3.13920
C          5.12548       -1.54824        4.54374
C          4.03094       -1.93654        5.53466
C          4.58248       -2.09969        6.94807
C          3.47837       -2.48393        7.91945
C          5.98774       -0.61223       -0.40579
C          7.39847       -0.28518       -0.50546
C          8.11805        0.07343       -1.63401
C          9.51199        0.35735       -1.39576
C         10.49455        0.76386       -2.47522
C          9.94352        0.88178       -3.89807
C         11.04865        1.29909       -4.87535
C         10.50392        1.46878       -6.29349
C         11.60722        1.87181       -7.27184
C         11.06132        2.04468       -8.68035
C          9.80644        0.18452       -0.04365
C         11.04788        0.29996        0.69085
C         11.29868       -0.14332        1.97517
C         12.63384        0.09592        2.44780
C         13.09341       -0.28314        3.84151
C         11.99894       -0.79919        4.78466
C         12.55263       -1.08996        6.18097
C         11.45977       -1.63233        7.10379
C         12.00649       -1.93141        8.49876
C         10.92334       -2.48059        9.41342
C         13.39806        0.67471        1.43302
C         14.80742        1.00235        1.35790
C         15.49574        1.50845        0.27092
C         16.89390        1.75651        0.50058
C         17.82335        2.32013       -0.54844
C         17.18669        2.61735       -1.90835
C         18.22341        3.16798       -2.88630
C         17.59898        3.44091       -4.25326
C         18.63597        3.99077       -5.22990
C         18.02283        4.26054       -6.59357
C         17.23005        1.42139        1.80936
C         18.47753        1.52895        2.53991
C         18.63670        1.35858        3.90255
C         19.98202        1.48522        4.37256
C         20.38156        1.29430        5.82214
C         19.22618        0.97191        6.78118
C         19.71997        0.73173        8.20844
C         18.56595        0.32851        9.13005
C         19.05088        0.10408       10.56156
C         17.90994       -0.30143       11.48111
C         20.82252        1.81584        3.31142
C         22.24516        2.04827        3.34668
C         23.15440        1.33710        4.09422
C         24.46683        1.90670        4.10873
C         25.57995        1.45124        5.01560
C         25.04505        0.66857        6.22092
C         26.10460        0.30653        7.25157
C         25.45186       -0.51111        8.36999
C         26.46292       -0.95378        9.42012
C         25.79118       -1.77981       10.50589
C         24.54682        2.93081        3.18562
S         23.03685        3.27833        2.45584
S         19.98043        1.87646        1.82588
S         15.87934        0.76125        2.63893
S         12.42230        1.06213        0.07598
S          8.40978       -0.23288        0.84614
S          5.09240       -0.76508       -1.85288
S          0.86524       -1.14225       -1.04169
S         -2.38692       -1.91598       -1.34354
S         -6.06740       -3.18613       -1.72344
C         -6.62769       -4.54880       -2.57813
C         -5.65702       -5.07373       -3.39885
H          3.94813       -3.85857       -4.95726
H          2.90642       -2.43184       -4.87419
H          3.10360       -3.46900       -3.44937
H          2.00158       -5.35240       -4.71987
H          1.75451       -4.26226       -6.09016
H          0.37221       -2.76357       -4.66213
H          0.64941       -3.81188       -3.27308
H         -0.53275       -5.69611       -4.50717
H         -0.87649       -4.56554       -5.82766
H         -1.97366       -3.04719       -4.22311
H         -1.67852       -4.21013       -2.90549
H         -3.13610       -5.84234       -4.17061
H         -3.52633       -4.55229       -5.30582
H         -4.53807       -0.91384       -4.00891
H         -1.69501        1.36748       -4.32613
H         -1.25562       -0.14594       -5.17530
H         -3.54523       -0.37648       -6.03479
H         -3.98061        1.16166       -5.27423
H         -2.12501        2.27323       -6.58648
H         -1.76629        0.72819       -7.35983
H         -4.03943        0.62896       -8.32495
H         -4.49555        2.10581       -7.47236
H         -2.68580        3.35280       -8.71889
H         -2.31787        1.87888       -9.61811
H         -3.83841        3.37040      -10.90090
H         -4.65258        1.84156      -10.51573
H         -5.03113        3.30767       -9.59108
H          0.31026        0.51555       -4.13828
H          3.56405        1.39690       -3.63442
H          3.89681       -0.26881       -4.15310
H          2.04860       -0.15683       -5.80700
H          1.83145        1.55284       -5.41458
H          4.17992        2.02220       -6.07975
H          4.43698        0.31339       -6.44445
H          2.67724        0.37520       -8.18693
H          2.30551        2.05379       -7.79194
H          4.64445        2.71352       -8.43907
H          4.98957        1.03668       -8.87023
H          4.38925        2.38073      -10.87059
H          3.18918        1.10389      -10.60300
H          2.81821        2.78020      -10.15545
H          2.96287       -1.02325        0.98676
H          6.41506       -1.73459        2.18699
H          6.03114       -0.01682        2.45754
H          3.74791       -0.63441        3.16220
H          4.08255       -2.33830        2.82832
H          5.90977       -2.31513        4.53628
H          5.59498       -0.60790        4.85763
H          3.24806       -1.16820        5.53271
H          3.56275       -2.87465        5.21225
H          5.36069       -2.87155        6.95940
H          5.04704       -1.16359        7.27889
H          3.88261       -2.59884        8.92942
H          2.69920       -1.71534        7.94881
H          3.01373       -3.43134        7.62758
H          7.66742        0.13827       -2.61682
H         10.90804        1.74387       -2.20818
H         11.31536        0.03571       -2.48536
H          9.51756       -0.07648       -4.21857
H          9.13687        1.62473       -3.92438
H         11.50005        2.24197       -4.54230
H         11.84414        0.54368       -4.87384
H         10.04419        0.52994       -6.62486
H          9.71690        2.23269       -6.29392
H         12.07019        2.81112       -6.94743
H         12.39433        1.10883       -7.28187
H         11.86456        2.32910       -9.36712
H         10.61598        1.11349       -9.04494
H         10.29562        2.82650       -8.71040
H         10.54359       -0.63568        2.57501
H         13.86459       -1.05786        3.75690
H         13.53967        0.60298        4.30867
H         11.19322       -0.05837        4.86484
H         11.55842       -1.71719        4.37608
H         13.36882       -1.81875        6.10871
H         12.97356       -0.17186        6.60844
H         10.64424       -0.90237        7.17715
H         11.03544       -2.54712        6.67206
H         12.82298       -2.65964        8.43057
H         12.42179       -1.01787        8.93987
H         11.33490       -2.68896       10.40585
H         10.10542       -1.76214        9.52830
H         10.50889       -3.41221        9.01493
H         15.01387        1.71034       -0.67743
H         18.25868        3.25002       -0.16305
H         18.63396        1.59991       -0.71135
H         16.74816        1.70151       -2.32452
H         16.37399        3.34532       -1.79250
H         18.65235        4.09360       -2.48375
H         19.04526        2.44967       -2.99402
H         17.17021        2.51396       -4.65354
H         16.77554        4.15749       -4.14580
H         19.06270        4.92017       -4.83517
H         19.45993        3.27603       -5.33952
H         18.78028        4.65492       -7.27770
H         17.61596        3.34199       -7.02835
H         17.21382        4.99433       -6.52078
H         17.80545        1.13390        4.55889
H         21.08740        0.45891        5.87702
H         20.89972        2.19625        6.16898
H         18.49861        1.79324        6.78211
H         18.69983        0.07235        6.43623
H         20.47864       -0.06023        8.20764
H         20.19889        1.64176        8.58829
H         17.79517        1.10881        9.11991
H         18.09860       -0.59001        8.75344
H         19.81925       -0.67763       10.57615
H         19.51286        1.02121       10.94473
H         18.27957       -0.44738       12.50094
H         17.13394        0.47018       11.50823
H         17.45172       -1.23844       11.14876
H         22.86281        0.47873        4.68249
H         26.28206        0.83319        4.44492
H         26.12681        2.33351        5.37096
H         24.25543        1.25059        6.71632
H         24.58061       -0.26119        5.86735
H         26.90301       -0.27413        6.77633
H         26.55333        1.21743        7.66370
H         24.66291        0.08488        8.84674
H         24.96392       -1.39522        7.93964
H         27.25175       -1.55008        8.94796
H         26.93925       -0.07655        9.87180
H         26.52644       -2.09699       11.25108
H         25.01541       -1.19979       11.01637
H         25.32484       -2.67637       10.08412
H         25.41210        3.52399        2.92356
H         -7.64140       -4.89962       -2.44302
H         -5.82801       -5.94046       -4.02678
