%chk=TS.chk
%mem=60GB
%nprocshared=16
#p b3lyp/6-311g(d,p) guess=mix empiricaldispersion=gd3

Title Card Required

0 1
 C                  5.86540800    3.22396600    1.02893900
 C                  4.39196900    3.07371600    0.64117800
 H                  6.16601900    2.44714800    1.74219300
 H                  6.05818100    4.19814200    1.49184000
 C                  4.10194400    1.70945400   -0.01470000
 H                  4.10418800    3.87896300   -0.04917500
 H                  3.75817800    3.18841800    1.53086400
 C                  2.67092200    1.57768100   -0.41149000
 H                  4.40719900    0.89254100    0.64240000
 H                  4.73210600    1.60248300   -0.91283100
 C                  1.82772800    0.49336300   -0.29798600
 H                  2.21313700    2.49450000   -0.77291300
 C                  0.38037700    0.73401400   -0.15303900
 C                  2.18111100   -0.89081500   -0.09084000
 C                 -0.52168900   -0.28258900   -0.13513800
 O                 -0.04476600    2.00121000    0.23332200
 C                  1.21590100   -1.86740700    0.08593800
 C                  3.49428500   -1.59254800   -0.23911400
 C                 -0.16192000   -1.61537400   -0.05800100
 H                 -1.85859600    0.05887700    0.17977400
 C                 -0.29828300    2.93240000   -0.75888500
 C                  1.87585500   -3.20950100    0.12905700
 N                  3.23756400   -2.95866900   -0.04553500
 O                  4.59919500   -1.15326900   -0.50289200
 H                 -0.84124900   -2.44026000   -0.25362900
 C                 -0.86833700    4.18399200   -0.15310700
 O                 -0.05251800    2.73118100   -1.91953100
 O                  1.36196200   -4.30006400    0.27730600
 C                  4.26293700   -3.98154200   -0.11970600
 H                 -1.91512400    3.98714000    0.09356900
 H                 -0.33280400    4.44908100    0.76290000
 H                 -0.80975100    4.99391500   -0.88132700
 H                  3.76904800   -4.94883900   -0.01379600
 H                  4.99517100   -3.84861100    0.68242800
 H                  4.78259200   -3.92773400   -1.08061300
 H                  6.51432100    3.13371800    0.14937800
 C                 -3.00314000    0.15152400    0.78881000
 C                 -2.60716400    0.72571700    2.13940900
 H                 -3.47073500    0.82856700    2.81112200
 H                 -1.86841100    0.07282200    2.61936600
 H                 -2.15219700    1.70801600    1.99460500
 C                 -3.75928400    1.15011300   -0.06546200
 N                 -3.48441300   -1.18666500    0.88968000
 H                 -3.48666400   -1.61960300    1.80792800
 C                 -3.62761500   -2.12751800   -0.12629100
 C                 -3.48669000   -1.64104200   -1.55480800
 H                 -2.62382100   -0.98275000   -1.69397500
 H                 -3.39147600   -2.51753200   -2.19680500
 H                 -4.37784200   -1.07428400   -1.84377600
 O                 -3.88449600   -3.28717700    0.16025900
 N                 -5.09683300    0.97842900   -0.33666300
 H                 -5.43195600    1.74320900   -0.91445700
 C                 -6.11006600    0.34889100    0.50716300
 H                 -6.98102400    0.10792000   -0.10896100
 H                 -5.72619500   -0.57674500    0.93182100
 H                 -6.43374700    1.00789800    1.32497200
 O                 -3.14666100    2.09966500   -0.55431900

